Circuit: * O:\Projects\Hardware\Flashlight\LT3763_TA01_2led.asc

Warning: Multiple definitions of model "fds6680" Type: Vdmos1
WARNING: Less than two connections to node U1:OV.  This node is used by A:U1:24.
Per .tran options, skipping operating point for transient analysis.
Heightened Def Con from 0.000148098 to 0.000148103
Heightened Def Con from 0.000167697 to 0.000167701
Heightened Def Con from 0.000167835 to 0.000167843
Heightened Def Con from 0.000181411 to 0.000181416
Heightened Def Con from 0.000187291 to 0.000187295
Heightened Def Con from 0.00018925 to 0.00018925
Heightened Def Con from 0.000193169 to 0.000193173
Heightened Def Con from 0.000195129 to 0.000195134
Heightened Def Con from 0.000197089 to 0.000197089
Heightened Def Con from 0.000197089 to 0.000197094
Heightened Def Con from 0.000202968 to 0.000202973
Heightened Def Con from 0.000206887 to 0.000206892
Heightened Def Con from 0.000214724 to 0.000214724
Heightened Def Con from 0.000214724 to 0.000214724
Heightened Def Con from 0.000218645 to 0.00021865
Heightened Def Con from 0.000220606 to 0.000220611
Heightened Def Con from 0.000226485 to 0.000226485
Heightened Def Con from 0.000226485 to 0.000226489
Heightened Def Con from 0.000228444 to 0.000228449
Heightened Def Con from 0.000230403 to 0.000230408
Heightened Def Con from 0.000232362 to 0.000232367
Heightened Def Con from 0.000234323 to 0.000234328
Heightened Def Con from 0.000240201 to 0.000240205
Heightened Def Con from 0.000242162 to 0.000242167
Heightened Def Con from 0.000246082 to 0.000246087
Heightened Def Con from 0.000251959 to 0.000251964
Heightened Def Con from 0.000253919 to 0.000253924
Heightened Def Con from 0.000257838 to 0.000257843
Heightened Def Con from 0.000259798 to 0.000259803
Heightened Def Con from 0.000261757 to 0.000261758
Heightened Def Con from 0.000265676 to 0.00026568
Heightened Def Con from 0.000265814 to 0.000265822
Heightened Def Con from 0.000269598 to 0.000269603
Heightened Def Con from 0.000271558 to 0.000271563
Heightened Def Con from 0.000275477 to 0.000275482
Heightened Def Con from 0.000279396 to 0.000279401
Heightened Def Con from 0.000281355 to 0.000281359
Heightened Def Con from 0.000281493 to 0.000281501
Heightened Def Con from 0.000283314 to 0.000283319
Heightened Def Con from 0.000287232 to 0.000287237
Heightened Def Con from 0.000289194 to 0.000289199
Heightened Def Con from 0.000291153 to 0.000291158
Heightened Def Con from 0.000293112 to 0.000293117
Heightened Def Con from 0.000295073 to 0.000295078
Heightened Def Con from 0.00030095 to 0.000300955
Heightened Def Con from 0.000303049 to 0.000303057
Heightened Def Con from 0.00030501 to 0.000305018
Heightened Def Con from 0.000306832 to 0.000306832
Heightened Def Con from 0.000308791 to 0.000308796
Heightened Def Con from 0.000310751 to 0.000310751
Heightened Def Con from 0.000310751 to 0.000310756
Heightened Def Con from 0.00031271 to 0.000312714
Heightened Def Con from 0.000318589 to 0.000318593
Heightened Def Con from 0.000320549 to 0.000320553
Heightened Def Con from 0.000320687 to 0.000320695
Heightened Def Con from 0.000322507 to 0.000322512
Heightened Def Con from 0.000322646 to 0.000322654
Heightened Def Con from 0.000324466 to 0.000324471
Heightened Def Con from 0.000328388 to 0.000328393
Heightened Def Con from 0.000330348 to 0.000330348
Heightened Def Con from 0.000330348 to 0.000330353
Heightened Def Con from 0.000332306 to 0.000332311
Heightened Def Con from 0.000336225 to 0.00033623
Heightened Def Con from 0.000338185 to 0.00033819
Heightened Def Con from 0.000340144 to 0.000340149
Heightened Def Con from 0.000342104 to 0.000342105
Heightened Def Con from 0.000344065 to 0.000344065
Heightened Def Con from 0.000344066 to 0.00034407
Heightened Def Con from 0.000346023 to 0.000346023
Heightened Def Con from 0.000346023 to 0.000346028
Heightened Def Con from 0.000346193 to 0.000346198
Heightened Def Con from 0.000347983 to 0.000347983
Heightened Def Con from 0.000347983 to 0.000347988
Heightened Def Con from 0.000349942 to 0.000349946
Heightened Def Con from 0.000351902 to 0.000351907
Heightened Def Con from 0.000353861 to 0.000353866
Heightened Def Con from 0.000354 to 0.000354008
Heightened Def Con from 0.000355959 to 0.000355967
Heightened Def Con from 0.000359739 to 0.00035974
Heightened Def Con from 0.000361699 to 0.0003617
Heightened Def Con from 0.000363659 to 0.000363664
Heightened Def Con from 0.000363798 to 0.000363806
Heightened Def Con from 0.000365617 to 0.000365622
Heightened Def Con from 0.000367577 to 0.000367577
Heightened Def Con from 0.000367577 to 0.000367582
Heightened Def Con from 0.000369537 to 0.000369542
Heightened Def Con from 0.000373455 to 0.000373455
Heightened Def Con from 0.000373455 to 0.00037346
Heightened Def Con from 0.000375415 to 0.00037542
Heightened Def Con from 0.000377375 to 0.00037738
Heightened Def Con from 0.000379334 to 0.000379335
Heightened Def Con from 0.000381293 to 0.000381294
Heightened Def Con from 0.000383254 to 0.000383254
Heightened Def Con from 0.000383254 to 0.000383258
Heightened Def Con from 0.000385213 to 0.000385217
Heightened Def Con from 0.000389131 to 0.000389136
Heightened Def Con from 0.00038927 to 0.000389278
Heightened Def Con from 0.00039109 to 0.000391095
Heightened Def Con from 0.00039305 to 0.000393054
Heightened Def Con from 0.000393188 to 0.000393196
Heightened Def Con from 0.000396968 to 0.000396968
Heightened Def Con from 0.000396968 to 0.000396973
Heightened Def Con from 0.000398927 to 0.000398927
Heightened Def Con from 0.000398927 to 0.000398932
Heightened Def Con from 0.000400887 to 0.000400892
Heightened Def Con from 0.000402848 to 0.000402852
Heightened Def Con from 0.000402986 to 0.000402994
Heightened Def Con from 0.000408721 to 0.000408721
Heightened Def Con from 0.000408721 to 0.000408725
Heightened Def Con from 0.000412642 to 0.000412647
Heightened Def Con from 0.000416563 to 0.000416568
Heightened Def Con from 0.000424402 to 0.000424407
Heightened Def Con from 0.000428321 to 0.000428326
Heightened Def Con from 0.000430281 to 0.000430286
Heightened Def Con from 0.00043224 to 0.000432245
Heightened Def Con from 0.000434201 to 0.000434206
Heightened Def Con from 0.00043434 to 0.000434348
Heightened Def Con from 0.000436161 to 0.000436166
Heightened Def Con from 0.000438119 to 0.000438119
Heightened Def Con from 0.000438119 to 0.000438124
Heightened Def Con from 0.000440078 to 0.000440079
Heightened Def Con from 0.000440079 to 0.000440082
Heightened Def Con from 0.000440218 to 0.000440226
Heightened Def Con from 0.000442038 to 0.000442043
Heightened Def Con from 0.000443998 to 0.000443999
Heightened Def Con from 0.000445956 to 0.000445961
Heightened Def Con from 0.000447914 to 0.000447919
Heightened Def Con from 0.000449874 to 0.000449874
Heightened Def Con from 0.000449874 to 0.000449879
Heightened Def Con from 0.000450013 to 0.000450021
Heightened Def Con from 0.000450043 to 0.000450047
Heightened Def Con from 0.00045183 to 0.000451832
Heightened Def Con from 0.000451833 to 0.000451833
Heightened Def Con from 0.000451833 to 0.000451838
Heightened Def Con from 0.000453793 to 0.000453798
Heightened Def Con from 0.000453932 to 0.00045394
Heightened Def Con from 0.000455752 to 0.000455752
Heightened Def Con from 0.000455752 to 0.000455757
Heightened Def Con from 0.000457712 to 0.000457717
Heightened Def Con from 0.000461631 to 0.000461631
Heightened Def Con from 0.000461631 to 0.000461635
Heightened Def Con from 0.000461773 to 0.000461777
Heightened Def Con from 0.0004618 to 0.000461805
Heightened Def Con from 0.00046359 to 0.00046359
Heightened Def Con from 0.00046359 to 0.000463595
Heightened Def Con from 0.00046555 to 0.000465555
Heightened Def Con from 0.000465719 to 0.000465723
Heightened Def Con from 0.000467509 to 0.000467509
Heightened Def Con from 0.000467509 to 0.000467514
Heightened Def Con from 0.000469467 to 0.000469467
Heightened Def Con from 0.000469467 to 0.000469472
Heightened Def Con from 0.000471424 to 0.000471426
Heightened Def Con from 0.000471426 to 0.000471427
Heightened Def Con from 0.000471566 to 0.000471574
Heightened Def Con from 0.000471596 to 0.000471601
Heightened Def Con from 0.000473384 to 0.000473386
Heightened Def Con from 0.000473386 to 0.000473392
Heightened Def Con from 0.000475346 to 0.000475351
Heightened Def Con from 0.000475515 to 0.00047552
Heightened Def Con from 0.000477307 to 0.000477307
Heightened Def Con from 0.000477307 to 0.000477308
Heightened Def Con from 0.000477477 to 0.000477482
Heightened Def Con from 0.000479267 to 0.000479271
Heightened Def Con from 0.000481227 to 0.000481233
Heightened Def Con from 0.000483187 to 0.000483192
Heightened Def Con from 0.000483357 to 0.000483361
Heightened Def Con from 0.000485145 to 0.00048515
Heightened Def Con from 0.000487105 to 0.000487106
Heightened Def Con from 0.000487245 to 0.000487249
Heightened Def Con from 0.000489065 to 0.000489065
Heightened Def Con from 0.000489065 to 0.00048907
Heightened Def Con from 0.000489234 to 0.000489237
Heightened Def Con from 0.000491025 to 0.000491025
Heightened Def Con from 0.000491025 to 0.00049103
Heightened Def Con from 0.000492983 to 0.000492984
Heightened Def Con from 0.000493153 to 0.000493157
Heightened Def Con from 0.000494943 to 0.000494949
Heightened Def Con from 0.000495113 to 0.000495118
Heightened Def Con from 0.000496904 to 0.000496909
Heightened Def Con from 0.000497043 to 0.000497051
Heightened Def Con from 0.000497074 to 0.000497077
Heightened Def Con from 0.000498863 to 0.000498868
Heightened Def Con from 0.000499002 to 0.00049901
Heightened Def Con from 0.000499032 to 0.000499037
Heightened Def Con from 0.000500822 to 0.000500827
Heightened Def Con from 0.000500961 to 0.000500969
Heightened Def Con from 0.000502781 to 0.000502781
Heightened Def Con from 0.000502781 to 0.000502786
Heightened Def Con from 0.00050474 to 0.00050474
Heightened Def Con from 0.00050474 to 0.000504745
Heightened Def Con from 0.000504879 to 0.000504887
Heightened Def Con from 0.000506699 to 0.000506704
Heightened Def Con from 0.000508658 to 0.000508663
Heightened Def Con from 0.000510616 to 0.000510622
Heightened Def Con from 0.000512575 to 0.00051258
Heightened Def Con from 0.000514535 to 0.000514535
Heightened Def Con from 0.000514535 to 0.000514535
Heightened Def Con from 0.000514535 to 0.00051454
Heightened Def Con from 0.000516496 to 0.000516496
Heightened Def Con from 0.000516496 to 0.000516501
Heightened Def Con from 0.000518455 to 0.00051846
Heightened Def Con from 0.000518597 to 0.000518601
Heightened Def Con from 0.000518624 to 0.000518629
Heightened Def Con from 0.000520415 to 0.00052042
Heightened Def Con from 0.000520555 to 0.000520563
Heightened Def Con from 0.000522372 to 0.000522374
Heightened Def Con from 0.000522374 to 0.00052238
Heightened Def Con from 0.000522544 to 0.000522549
Heightened Def Con from 0.000524331 to 0.000524333
Heightened Def Con from 0.000524334 to 0.000524339
Heightened Def Con from 0.000524476 to 0.000524481
Heightened Def Con from 0.000524503 to 0.000524507
Heightened Def Con from 0.000526292 to 0.000526292
Heightened Def Con from 0.000526292 to 0.000526297
Heightened Def Con from 0.000528252 to 0.000528257
Heightened Def Con from 0.000528391 to 0.000528399
Heightened Def Con from 0.000530213 to 0.000530213
Heightened Def Con from 0.000530213 to 0.000530218
Heightened Def Con from 0.000532173 to 0.000532173
Heightened Def Con from 0.000532173 to 0.000532178
Heightened Def Con from 0.000534132 to 0.000534132
Heightened Def Con from 0.000534132 to 0.000534136
Heightened Def Con from 0.000536092 to 0.000536092
Heightened Def Con from 0.000536092 to 0.000536095
Heightened Def Con from 0.000536261 to 0.000536265
Heightened Def Con from 0.00053805 to 0.00053805
Heightened Def Con from 0.00053805 to 0.000538055
Heightened Def Con from 0.000540178 to 0.000540182
Heightened Def Con from 0.000541968 to 0.000541968
Heightened Def Con from 0.000541968 to 0.000541973
Heightened Def Con from 0.000542137 to 0.000542142
Heightened Def Con from 0.000543926 to 0.000543926
Heightened Def Con from 0.000543926 to 0.00054393
Heightened Def Con from 0.000544064 to 0.000544072
Heightened Def Con from 0.000545882 to 0.000545884
Heightened Def Con from 0.000545885 to 0.00054589
Heightened Def Con from 0.000546024 to 0.000546032
Heightened Def Con from 0.000546054 to 0.000546059
Heightened Def Con from 0.000547844 to 0.000547844
Heightened Def Con from 0.000547844 to 0.000547849
Heightened Def Con from 0.000549804 to 0.000549809
Heightened Def Con from 0.000551764 to 0.000551764
Heightened Def Con from 0.000551764 to 0.000551767
Heightened Def Con from 0.000551934 to 0.000551938
Heightened Def Con from 0.000553723 to 0.000553728
Heightened Def Con from 0.000553892 to 0.000553896
Heightened Def Con from 0.000555682 to 0.000555682
Heightened Def Con from 0.000555682 to 0.000555686
Heightened Def Con from 0.00055582 to 0.000555828
Heightened Def Con from 0.00055585 to 0.000555855
Heightened Def Con from 0.00055764 to 0.000557641
Heightened Def Con from 0.000557811 to 0.000557815
Heightened Def Con from 0.000559601 to 0.000559601
Heightened Def Con from 0.000559601 to 0.000559606
Heightened Def Con from 0.000561562 to 0.000561562
Heightened Def Con from 0.000561562 to 0.000561562
Heightened Def Con from 0.000561562 to 0.000561567
Heightened Def Con from 0.000563521 to 0.000563521
Heightened Def Con from 0.000563521 to 0.000563526
Heightened Def Con from 0.00056369 to 0.000563695
Heightened Def Con from 0.000565481 to 0.000565481
Heightened Def Con from 0.000565481 to 0.000565486
Heightened Def Con from 0.00056562 to 0.000565628
Heightened Def Con from 0.00056744 to 0.00056744
Heightened Def Con from 0.00056744 to 0.000567445
Heightened Def Con from 0.000567609 to 0.000567614
Heightened Def Con from 0.000569398 to 0.000569403
Heightened Def Con from 0.000569541 to 0.000569545
Heightened Def Con from 0.000571357 to 0.000571357
Heightened Def Con from 0.000571357 to 0.000571357
Heightened Def Con from 0.000571357 to 0.000571362
Heightened Def Con from 0.000571496 to 0.000571504
Heightened Def Con from 0.000571526 to 0.00057153
Heightened Def Con from 0.000573313 to 0.000573315
Heightened Def Con from 0.000573316 to 0.000573321
Heightened Def Con from 0.000573455 to 0.000573463
Heightened Def Con from 0.000575276 to 0.000575276
Heightened Def Con from 0.000575276 to 0.00057528
Heightened Def Con from 0.000575415 to 0.000575423
Heightened Def Con from 0.000577234 to 0.000577234
Heightened Def Con from 0.000577234 to 0.000577234
Heightened Def Con from 0.000577234 to 0.000577239
Heightened Def Con from 0.000577377 to 0.000577382
Heightened Def Con from 0.000579194 to 0.000579199
Heightened Def Con from 0.000579333 to 0.000579341
Heightened Def Con from 0.000581153 to 0.000581153
Heightened Def Con from 0.000581153 to 0.000581158
Heightened Def Con from 0.000581295 to 0.0005813
Heightened Def Con from 0.000583113 to 0.000583113
Heightened Def Con from 0.000583113 to 0.000583118
Heightened Def Con from 0.000583252 to 0.00058326
Heightened Def Con from 0.000585068 to 0.000585071
Heightened Def Con from 0.000585071 to 0.000585076
Heightened Def Con from 0.000585241 to 0.000585245
Heightened Def Con from 0.000587029 to 0.000587029
Heightened Def Con from 0.000587029 to 0.000587034
Heightened Def Con from 0.000587199 to 0.000587203
Heightened Def Con from 0.000588989 to 0.000588994
Heightened Def Con from 0.000589158 to 0.000589162
Heightened Def Con from 0.000590949 to 0.00059095
Heightened Def Con from 0.000592909 to 0.000592909
Heightened Def Con from 0.000592909 to 0.000592909
Heightened Def Con from 0.000592909 to 0.000592914
Heightened Def Con from 0.000593048 to 0.000593056
Heightened Def Con from 0.00059501 to 0.000595013
Heightened Def Con from 0.000596827 to 0.000596832
Heightened Def Con from 0.000596966 to 0.000596974
Heightened Def Con from 0.000598787 to 0.000598792
Heightened Def Con from 0.000598926 to 0.000598934
Heightened Def Con from 0.000600747 to 0.000600752
Heightened Def Con from 0.000600886 to 0.000600894
Heightened Def Con from 0.000602707 to 0.000602712
Heightened Def Con from 0.000604668 to 0.000604673
Heightened Def Con from 0.000606627 to 0.000606632
Heightened Def Con from 0.000606766 to 0.000606774
Heightened Def Con from 0.000606796 to 0.0006068
Heightened Def Con from 0.000608587 to 0.000608587
Heightened Def Con from 0.000608587 to 0.000608592
Heightened Def Con from 0.000610546 to 0.000610552
Heightened Def Con from 0.000612507 to 0.000612512
Heightened Def Con from 0.000614466 to 0.000614471
Heightened Def Con from 0.000614636 to 0.00061464
Heightened Def Con from 0.000616424 to 0.00061643
Heightened Def Con from 0.000618386 to 0.000618386
Heightened Def Con from 0.000618386 to 0.000618386
Heightened Def Con from 0.000618386 to 0.00061839
Heightened Def Con from 0.000618555 to 0.000618559
Heightened Def Con from 0.000620345 to 0.000620345
Heightened Def Con from 0.000620345 to 0.000620349
Heightened Def Con from 0.000620483 to 0.000620491
Heightened Def Con from 0.000620513 to 0.000620517
Heightened Def Con from 0.000622302 to 0.000622308
Heightened Def Con from 0.000622443 to 0.000622451
Heightened Def Con from 0.000624263 to 0.000624268
Heightened Def Con from 0.000624402 to 0.00062441
Heightened Def Con from 0.000624432 to 0.000624436
Heightened Def Con from 0.000626223 to 0.000626228
Heightened Def Con from 0.000626362 to 0.00062637
Heightened Def Con from 0.000628183 to 0.000628188
Heightened Def Con from 0.000628322 to 0.00062833
Heightened Def Con from 0.000630142 to 0.000630142
Heightened Def Con from 0.000630142 to 0.000630147
Heightened Def Con from 0.000630281 to 0.000630289
Heightened Def Con from 0.000632101 to 0.000632106
Heightened Def Con from 0.000634059 to 0.000634065
Heightened Def Con from 0.000634229 to 0.000634232
Heightened Def Con from 0.000636019 to 0.000636024
Heightened Def Con from 0.000636159 to 0.000636167
Heightened Def Con from 0.000637979 to 0.000637983
Heightened Def Con from 0.00063812 to 0.000638125
Heightened Def Con from 0.000639937 to 0.000639942
Heightened Def Con from 0.000640076 to 0.000640084
Heightened Def Con from 0.000640106 to 0.000640111
Heightened Def Con from 0.000641892 to 0.000641894
Heightened Def Con from 0.000641894 to 0.0006419
Heightened Def Con from 0.000642064 to 0.000642068
Heightened Def Con from 0.000643853 to 0.000643858
Heightened Def Con from 0.000644023 to 0.000644028
Heightened Def Con from 0.000645812 to 0.000645818
Heightened Def Con from 0.000645982 to 0.000645986
Heightened Def Con from 0.000647773 to 0.000647773
Heightened Def Con from 0.000647773 to 0.000647778
Heightened Def Con from 0.00064973 to 0.000649732
Heightened Def Con from 0.000649733 to 0.000649733
Heightened Def Con from 0.00065169 to 0.000651695
Heightened Def Con from 0.000651833 to 0.000651836
Heightened Def Con from 0.00065186 to 0.000651864
Heightened Def Con from 0.00065365 to 0.000653655
Heightened Def Con from 0.000655609 to 0.000655609
Heightened Def Con from 0.000655609 to 0.000655614
Heightened Def Con from 0.000657568 to 0.000657568
Heightened Def Con from 0.000657568 to 0.000657573
Heightened Def Con from 0.000659523 to 0.000659526
Heightened Def Con from 0.000659526 to 0.000659532
Heightened Def Con from 0.000659696 to 0.0006597
Heightened Def Con from 0.000661485 to 0.00066149
Heightened Def Con from 0.000663588 to 0.000663592
Heightened Def Con from 0.000665405 to 0.000665405
Heightened Def Con from 0.000665405 to 0.000665405
Heightened Def Con from 0.000665406 to 0.000665411
Heightened Def Con from 0.000667364 to 0.000667369
Heightened Def Con from 0.000669324 to 0.000669329
Heightened Def Con from 0.000671283 to 0.000671288
Heightened Def Con from 0.000673242 to 0.000673247
Heightened Def Con from 0.000673381 to 0.000673389
Heightened Def Con from 0.000675201 to 0.000675201
Heightened Def Con from 0.000675201 to 0.000675206
Heightened Def Con from 0.00067537 to 0.000675375
Heightened Def Con from 0.000677159 to 0.000677164
Heightened Def Con from 0.000677298 to 0.000677306
Heightened Def Con from 0.000679119 to 0.000679119
Heightened Def Con from 0.000679119 to 0.000679123
Heightened Def Con from 0.000679257 to 0.000679265
Heightened Def Con from 0.000681078 to 0.000681078
Heightened Def Con from 0.000681078 to 0.000681083
Heightened Def Con from 0.000683038 to 0.000683043
Heightened Def Con from 0.000684997 to 0.000684997
Heightened Def Con from 0.000684997 to 0.000685002
Heightened Def Con from 0.000686957 to 0.000686958
Heightened Def Con from 0.000688916 to 0.000688922
Heightened Def Con from 0.000690876 to 0.000690877
Heightened Def Con from 0.000691015 to 0.0006