Circuit: * O:\Projects\Hardware\Flashlight\LT3763_TA01.asc

Warning: Multiple definitions of model "fds6680" Type: Vdmos1
WARNING: Less than two connections to node U1:OV.  This node is used by A:U1:24.
Direct Newton iteration failed to find .op point.  (Use ".option noopiter" to skip.)
Starting Gmin stepping
Gmin = 10
Gmin = 1.07374
Gmin = 0.115292
Gmin = 0.0123794
Gmin = 0.00132923
Gmin = 0.000142725
Gmin = 1.5325e-005
Gmin = 1.6455e-006
Gmin = 1.76685e-007
Gmin = 1.89714e-008
Gmin = 2.03704e-009
Gmin = 2.18725e-010
Gmin = 2.34854e-011
Gmin = 2.52173e-012
Gmin = 2.70769e-013
Gmin = 0
Gmin stepping succeeded in finding the operating point.


Date: Mon Aug 05 22:40:01 2013
Total elapsed time: 159.494 seconds.

tnom = 27
temp = 27
method = modified trap
totiter = 3206144
traniter = 3205669
tranpoints = 849169
accept = 627492
rejected = 221677
matrix size = 94
fillins = 19
solver = Normal
Thread vector: 28.7/40.6[2] 19.0/13.5[2] 46.6/26.5[4] 0.7/2.5[1]  2592/500
Matrix Compiler1: 4,26 สม object code size  3.1/2.8/[1.6]
Matrix Compiler2: 6,10 สม object code size  2.0/3.2/[1.2]


